%%-----  Power Flow Data  -----%%
%% system MVA base
mpc.baseMVA = 1000 %[W], BaseV = 220[V], BaseR = V0^2/P0 = 48.4 [Ohm];

%% bus data
%	bus_i	type	Pd	Qd	Gs	Bs	area	Vm	Va	baseKV	zone	Vmax	Vmin
mpc.bus = [
	1	3	0	0	0	0	1	1.0	0	0	1	1.06	0.94;
	2	1	0	0	0	0	1	1.0	0	0	1	1.06	0.94;
	3	1	0	0	0	0	1	1.0	0	0	1	1.06	0.94;
	4	1	0	0	0	0	1	1.0	0	0	1	1.06	0.94;
	5	1	0	0	0	0	1	1.0	0	0	1	1.06	0.94;
	6	1	0	0	0	0	1	1.0	0	0	1	1.06	0.94;
	7	1	0	0	0	0	1	1.0	0	0	1	1.06	0.94;
	8	1	0	0	0	0	1	1.0	0	0	1	1.06	0.94;
	9	1	0	0	0	0	1	1.0	0	0	1	1.06	0.94;
	10	1	0	0	0	0	1	1.0	0	0	1	1.06	0.94;
	11	1	0	0	0	0	1	1.0	0	0	1	1.06	0.94;
	12	1	0	0	0	0	1	1.0	0	0	1	1.06	0.94;
	13	1	0	0	0	0	1	1.0	0	0	1	1.06	0.94;
	14	1	0	0	0	0	1	1.0	0	0	1	1.06	0.94;
	15	1	0	0	0	0	1	1.0	0	0	1	1.06	0.94;
	16	1	0	0	0	0	1	1.0	0	0	1	1.06	0.94;
	17	1	0	0	0	0	1	1.0	0	0	1	1.06	0.94;
	18	1	0	0	0	0	1	1.0	0	0	1	1.06	0.94;
	19	1	0	0	0	0	1	1.0	0	0	1	1.06	0.94;
	20	1	0	0	0	0	1	1.0	0	0	1	1.06	0.94;
	21	1	0	0	0	0	1	1.0	0	0	1	1.06	0.94;
	22	1	0	0	0	0	1	1.0	0	0	1	1.06	0.94;
	23	1	0	0	0	0	1	1.0	0	0	1	1.06	0.94;
	24	1	0	0	0	0	1	1.0	0	0	1	1.06	0.94;
	25	1	0	0	0	0	1	1.0	0	0	1	1.06	0.94;
	26	1	0	0	0	0	1	1.0	0	0	1	1.06	0.94;
	27	1	0	0	0	0	1	1.0	0	0	1	1.06	0.94;
	28	1	0	0	0	0	1	1.0	0	0	1	1.06	0.94;
	29	1	0	0	0	0	1	1.0	0	0	1	1.06	0.94;
	30	1	0	0	0	0	1	1.0	0	0	1	1.06	0.94;
	31	1	0	0	0	0	1	1.0	0	0	1	1.06	0.94;
	32	1	0	0	0	0	1	1.0	0	0	1	1.06	0.94;
	33	1	0	0	0	0	1	1.0	0	0	1	1.06	0.94;
	34	1	0	0	0	0	1	1.0	0	0	1	1.06	0.94;
	35	1	0	0	0	0	1	1.0	0	0	1	1.06	0.94;
	36	1	0	0	0	0	1	1.0	0	0	1	1.06	0.94;
	37	1	0	0	0	0	1	1.0	0	0	1	1.06	0.94;
	38	1	0	0	0	0	1	1.0	0	0	1	1.06	0.94;
	39	1	0	0	0	0	1	1.0	0	0	1	1.06	0.94;
	40	1	0	0	0	0	1	1.0	0	0	1	1.06	0.94;
	41	1	0	0	0	0	1	1.0	0	0	1	1.06	0.94;
	42	1	0	0	0	0	1	1.0	0	0	1	1.06	0.94;
	43	1	0	0	0	0	1	1.0	0	0	1	1.06	0.94;
	44	1	0	0	0	0	1	1.0	0	0	1	1.06	0.94;
	45	1	0	0	0	0	1	1.0	0	0	1	1.06	0.94;
	46	1	0	0	0	0	1	1.0	0	0	1	1.06	0.94;
	47	1	0	0	0	0	1	1.0	0	0	1	1.06	0.94;
	48	1	0	0	0	0	1	1.0	0	0	1	1.06	0.94;
	49	1	0	0	0	0	1	1.0	0	0	1	1.06	0.94;
	50	1	0	0	0	0	1	1.0	0	0	1	1.06	0.94;
	51	1	0	0	0	0	1	1.0	0	0	1	1.06	0.94;
	52	1	0	0	0	0	1	1.0	0	0	1	1.06	0.94;
	53	1	0	0	0	0	1	1.0	0	0	1	1.06	0.94;
	54	1	0	0	0	0	1	1.0	0	0	1	1.06	0.94;
	55	1	0	0	0	0	1	1.0	0	0	1	1.06	0.94;
	56	1	0	0	0	0	1	1.0	0	0	1	1.06	0.94;
	57	1	0	0	0	0	1	1.0	0	0	1	1.06	0.94;
	58	1	0	0	0	0	1	1.0	0	0	1	1.06	0.94;
	59	1	0	0	0	0	1	1.0	0	0	1	1.06	0.94;
	60	1	0	0	0	0	1	1.0	0	0	1	1.06	0.94;
	61	1	0	0	0	0	1	1.0	0	0	1	1.06	0.94;
	62	1	0	0	0	0	1	1.0	0	0	1	1.06	0.94;
	63	1	0	0	0	0	1	1.0	0	0	1	1.06	0.94;
	64	1	0	0	0	0	1	1.0	0	0	1	1.06	0.94;
	65	1	0	0	0	0	1	1.0	0	0	1	1.06	0.94;
	66	1	0	0	0	0	1	1.0	0	0	1	1.06	0.94;
	67	1	0	0	0	0	1	1.0	0	0	1	1.06	0.94;
	68	1	0	0	0	0	1	1.0	0	0	1	1.06	0.94;
	69	1	0	0	0	0	1	1.0	0	0	1	1.06	0.94;
	70	1	0	0	0	0	1	1.0	0	0	1	1.06	0.94;
	71	1	0	0	0	0	1	1.0	0	0	1	1.06	0.94;
	72	1	0	0	0	0	1	1.0	0	0	1	1.06	0.94;
	73	1	0	0	0	0	1	1.0	0	0	1	1.06	0.94;
	74	1	0	0	0	0	1	1.0	0	0	1	1.06	0.94;
	75	1	0	0	0	0	1	1.0	0	0	1	1.06	0.94;
	76	1	0	0	0	0	1	1.0	0	0	1	1.06	0.94;
	77	1	0	0	0	0	1	1.0	0	0	1	1.06	0.94;
	78	1	0	0	0	0	1	1.0	0	0	1	1.06	0.94;
	79	1	0	0	0	0	1	1.0	0	0	1	1.06	0.94;
	80	1	0	0	0	0	1	1.0	0	0	1	1.06	0.94;
	81	1	0	0	0	0	1	1.0	0	0	1	1.06	0.94;
	82	1	0	0	0	0	1	1.0	0	0	1	1.06	0.94;
	83	1	0	0	0	0	1	1.0	0	0	1	1.06	0.94;
	84	1	0	0	0	0	1	1.0	0	0	1	1.06	0.94;
	85	1	0	0	0	0	1	1.0	0	0	1	1.06	0.94;
	86	1	0	0	0	0	1	1.0	0	0	1	1.06	0.94;
	87	1	0	0	0	0	1	1.0	0	0	1	1.06	0.94;
	88	1	0	0	0	0	1	1.0	0	0	1	1.06	0.94;
	89	1	0	0	0	0	1	1.0	0	0	1	1.06	0.94;
	90	1	0	0	0	0	1	1.0	0	0	1	1.06	0.94;
	91	1	0	0	0	0	1	1.0	0	0	1	1.06	0.94;
	92	1	0	0	0	0	1	1.0	0	0	1	1.06	0.94;
	93	1	0	0	0	0	1	1.0	0	0	1	1.06	0.94;
	94	1	0	0	0	0	1	1.0	0	0	1	1.06	0.94;
	95	1	0	0	0	0	1	1.0	0	0	1	1.06	0.94;
	96	1	0	0	0	0	1	1.0	0	0	1	1.06	0.94;
	97	1	0	0	0	0	1	1.0	0	0	1	1.06	0.94;
	98	1	0	0	0	0	1	1.0	0	0	1	1.06	0.94;
	99	1	0	0	0	0	1	1.0	0	0	1	1.06	0.94;
	100	1	0	0	0	0	1	1.0	0	0	1	1.06	0.94;
];

%% generator data
%	bus	Pg	Qg	Qmax	Qmin	Vg	mBase	status	Pmax	Pmin	Pc1	Pc2	Qc1min	Qc1max	Qc2min	Qc2max	ramp_agc	ramp_10	ramp_30	ramp_q	apf
mpc.gen = [
	1	0	0	0	0	1.0	0	1	0	0	0	0	0	0	0	0	0	0	0	0	0;
];

%% branch data
%	fbus	tbus	r	x	b	rateA	rateB	rateC	ratio	angle	status	angmin	angmax
mpc.branch = [
	1	2	0.00001	0.00001	0.0	0	0	0	0	0	1	-360	360;
	1	3	0.00001	0.00001	0.0	0	0	0	0	0	1	-360	360;
	1	4	0.00001	0.00001	0.0	0	0	0	0	0	1	-360	360;
	1	5	0.00001	0.00001	0.0	0	0	0	0	0	1	-360	360;
	2	6	0.0001	0.0001	0.0	0	0	0	0	0	1	-360	360;
	2	7	0.0001	0.0001	0.0	0	0	0	0	0	1	-360	360;
	2	8	0.0001	0.0001	0.0	0	0	0	0	0	1	-360	360;
	2	9	0.0001	0.0001	0.0	0	0	0	0	0	1	-360	360;
	3	10	0.0001	0.0001	0.0	0	0	0	0	0	1	-360	360;
	4	11	0.0001	0.0001	0.0	0	0	0	0	0	1	-360	360;
	4	12	0.0001	0.0001	0.0	0	0	0	0	0	1	-360	360;
	4	13	0.0001	0.0001	0.0	0	0	0	0	0	1	-360	360;
	4	14	0.0001	0.0001	0.0	0	0	0	0	0	1	-360	360;
	5	15	0.0001	0.0001	0.0	0	0	0	0	0	1	-360	360;
	5	16	0.0001	0.0001	0.0	0	0	0	0	0	1	-360	360;
	5	17	0.0001	0.0001	0.0	0	0	0	0	0	1	-360	360;
	5	18	0.0001	0.0001	0.0	0	0	0	0	0	1	-360	360;
	6	19	0.0001	0.0001	0.0	0	0	0	0	0	1	-360	360;
	6	20	0.0001	0.0001	0.0	0	0	0	0	0	1	-360	360;
	7	21	0.0001	0.0001	0.0	0	0	0	0	0	1	-360	360;
	7	22	0.0001	0.0001	0.0	0	0	0	0	0	1	-360	360;
	7	23	0.0001	0.0001	0.0	0	0	0	0	0	1	-360	360;
	7	24	0.0001	0.0001	0.0	0	0	0	0	0	1	-360	360;
	9	25	0.0001	0.0001	0.0	0	0	0	0	0	1	-360	360;
	9	26	0.0001	0.0001	0.0	0	0	0	0	0	1	-360	360;
	9	27	0.0001	0.0001	0.0	0	0	0	0	0	1	-360	360;
	10	28	0.0001	0.0001	0.0	0	0	0	0	0	1	-360	360;
	10	29	0.0001	0.0001	0.0	0	0	0	0	0	1	-360	360;
	11	30	0.0001	0.0001	0.0	0	0	0	0	0	1	-360	360;
	11	31	0.0001	0.0001	0.0	0	0	0	0	0	1	-360	360;
	11	32	0.0001	0.0001	0.0	0	0	0	0	0	1	-360	360;
	13	33	0.0001	0.0001	0.0	0	0	0	0	0	1	-360	360;
	13	34	0.0001	0.0001	0.0	0	0	0	0	0	1	-360	360;
	13	35	0.0001	0.0001	0.0	0	0	0	0	0	1	-360	360;
	14	36	0.0001	0.0001	0.0	0	0	0	0	0	1	-360	360;
	14	37	0.0001	0.0001	0.0	0	0	0	0	0	1	-360	360;
	14	38	0.0001	0.0001	0.0	0	0	0	0	0	1	-360	360;
	15	39	0.0001	0.0001	0.0	0	0	0	0	0	1	-360	360;
	16	40	0.0001	0.0001	0.0	0	0	0	0	0	1	-360	360;
	16	41	0.0001	0.0001	0.0	0	0	0	0	0	1	-360	360;
	17	42	0.0001	0.0001	0.0	0	0	0	0	0	1	-360	360;
	17	43	0.0001	0.0001	0.0	0	0	0	0	0	1	-360	360;
	17	44	0.0001	0.0001	0.0	0	0	0	0	0	1	-360	360;
	18	45	0.0001	0.0001	0.0	0	0	0	0	0	1	-360	360;
	18	46	0.0001	0.0001	0.0	0	0	0	0	0	1	-360	360;
	18	47	0.0001	0.0001	0.0	0	0	0	0	0	1	-360	360;
	19	48	0.0001	0.0001	0.0	0	0	0	0	0	1	-360	360;
	19	49	0.0001	0.0001	0.0	0	0	0	0	0	1	-360	360;
	20	50	0.0001	0.0001	0.0	0	0	0	0	0	1	-360	360;
	20	51	0.0001	0.0001	0.0	0	0	0	0	0	1	-360	360;
	20	52	0.0001	0.0001	0.0	0	0	0	0	0	1	-360	360;
	21	53	0.0001	0.0001	0.0	0	0	0	0	0	1	-360	360;
	21	54	0.0001	0.0001	0.0	0	0	0	0	0	1	-360	360;
	21	55	0.0001	0.0001	0.0	0	0	0	0	0	1	-360	360;
	22	56	0.0001	0.0001	0.0	0	0	0	0	0	1	-360	360;
	22	57	0.0001	0.0001	0.0	0	0	0	0	0	1	-360	360;
	22	58	0.0001	0.0001	0.0	0	0	0	0	0	1	-360	360;
	25	59	0.0001	0.0001	0.0	0	0	0	0	0	1	-360	360;
	25	60	0.0001	0.0001	0.0	0	0	0	0	0	1	-360	360;
	25	61	0.0001	0.0001	0.0	0	0	0	0	0	1	-360	360;
	26	62	0.0001	0.0001	0.0	0	0	0	0	0	1	-360	360;
	27	63	0.0001	0.0001	0.0	0	0	0	0	0	1	-360	360;
	27	64	0.0001	0.0001	0.0	0	0	0	0	0	1	-360	360;
	28	65	0.0001	0.0001	0.0	0	0	0	0	0	1	-360	360;
	28	66	0.0001	0.0001	0.0	0	0	0	0	0	1	-360	360;
	31	67	0.0001	0.0001	0.0	0	0	0	0	0	1	-360	360;
	31	68	0.0001	0.0001	0.0	0	0	0	0	0	1	-360	360;
	31	69	0.0001	0.0001	0.0	0	0	0	0	0	1	-360	360;
	32	70	0.0001	0.0001	0.0	0	0	0	0	0	1	-360	360;
	32	71	0.0001	0.0001	0.0	0	0	0	0	0	1	-360	360;
	33	72	0.0001	0.0001	0.0	0	0	0	0	0	1	-360	360;
	33	73	0.0001	0.0001	0.0	0	0	0	0	0	1	-360	360;
	33	74	0.0001	0.0001	0.0	0	0	0	0	0	1	-360	360;
	34	75	0.0001	0.0001	0.0	0	0	0	0	0	1	-360	360;
	34	76	0.0001	0.0001	0.0	0	0	0	0	0	1	-360	360;
	34	77	0.0001	0.0001	0.0	0	0	0	0	0	1	-360	360;
	34	78	0.0001	0.0001	0.0	0	0	0	0	0	1	-360	360;
	35	79	0.0001	0.0001	0.0	0	0	0	0	0	1	-360	360;
	35	80	0.0001	0.0001	0.0	0	0	0	0	0	1	-360	360;
	35	81	0.0001	0.0001	0.0	0	0	0	0	0	1	-360	360;
	35	82	0.0001	0.0001	0.0	0	0	0	0	0	1	-360	360;
	36	83	0.0001	0.0001	0.0	0	0	0	0	0	1	-360	360;
	36	84	0.0001	0.0001	0.0	0	0	0	0	0	1	-360	360;
	37	85	0.0001	0.0001	0.0	0	0	0	0	0	1	-360	360;
	37	86	0.0001	0.0001	0.0	0	0	0	0	0	1	-360	360;
	37	87	0.0001	0.0001	0.0	0	0	0	0	0	1	-360	360;
	39	88	0.0001	0.0001	0.0	0	0	0	0	0	1	-360	360;
	39	89	0.0001	0.0001	0.0	0	0	0	0	0	1	-360	360;
	39	90	0.0001	0.0001	0.0	0	0	0	0	0	1	-360	360;
	39	91	0.0001	0.0001	0.0	0	0	0	0	0	1	-360	360;
	40	92	0.0001	0.0001	0.0	0	0	0	0	0	1	-360	360;
	41	93	0.0001	0.0001	0.0	0	0	0	0	0	1	-360	360;
	41	94	0.0001	0.0001	0.0	0	0	0	0	0	1	-360	360;
	41	95	0.0001	0.0001	0.0	0	0	0	0	0	1	-360	360;
	42	96	0.0001	0.0001	0.0	0	0	0	0	0	1	-360	360;
	42	97	0.0001	0.0001	0.0	0	0	0	0	0	1	-360	360;
	43	98	0.0001	0.0001	0.0	0	0	0	0	0	1	-360	360;
	43	99	0.0001	0.0001	0.0	0	0	0	0	0	1	-360	360;
	43	100	0.0001	0.0001	0.0	0	0	0	0	0	1	-360	360;
];
